20160520-154226 models/libs/c_coupler 85dc53680e3aa40dd78345935c3300f122a10e7d http://develop.c-coupler.org/c-coupler-development-group/c-coupler-lib.git
20150701-003025 models/libs/c_coupler 4d40e93b66965b3b8852214d06ad864396089213 http://develop.c-coupler.org/c-coupler-development-group/c-coupler-lib.git
20150624-155426 models/lnd/CLM2 54374f1c093690e05e0dfe5b11f760f796341ec3 http://develop.c-coupler.org/liruizhe/clm2.git
20150624-155426 models/sice/CSIM4 f5ce9310ef4dea35622d36f77534c6380b92ff99 http://develop.c-coupler.org/liruizhe/csim4.git
20150624-150400 models/atm/GAMIL2.0_128x60 8dbb11418bd570f79ea8c8950499c532499b7bd7 http://develop.c-coupler.org/liruizhe/GAMIL2.0_128x60.git
20150624-150400 models/atm_chem/GIGC/Code.v9-02 a7622ff995773c70fb5fbe74276617c034699cd2 git://git.as.harvard.edu/bmy/GEOS-Chem
20150624-150400 models/libs/c_coupler 82dfdeb426e500157a86285e4900f19beef0e621 http://develop.c-coupler.org/c-coupler-development-group/c-coupler-lib.git
20150624-150400 models/libs/esmf eaac74068be97deb76c449d67f17d3ffc11b089d http://develop.c-coupler.org/c-coupler-development-group/esmf-lib.git
20150624-150400 models/libs/shr 1bc1621b543439506f161575cac45d31ff161fb6 http://develop.c-coupler.org/c-coupler-development-group/shared-lib.git
20150624-150400 models/libs/timing 08a797dab5d7a5ce434fd74d0a0cf555e08df10c http://develop.c-coupler.org/c-coupler-development-group/timing-lib.git
20150624-150400 scripts b1beb3aaf970a890b9e755be540000733a5d7e90 http://develop.c-coupler.org/c-coupler-development-group/platform-scripts.git
20150624-150400 config 679438b52829b2c6c4a82766d42d598ec7edf3bf http://develop.c-coupler.org/c-coupler-development-group/platform-config.git
